{
  "completed_status": "Fail",
  "current_step": 0,
  "eplusout_err": [
    "Program Version,EnergyPlus, Version 9.5.0-de239b2e5f, ",
    "   ** Severe  ** <root>[Coil:Cooling:DX:SingleSpeed][Coil Cooling DX Single Speed 3] - Missing required property 'air_inlet_node_name'.",
    "   ** Severe  ** <root>[Coil:Cooling:DX:SingleSpeed][Coil Cooling DX Single Speed 3] - Missing required property 'air_outlet_node_name'.",
    "   **  Fatal  ** Errors occurred on processing input file. Preceding condition(s) cause termination.",
    "   ...Summary of Errors that led to program termination:",
    "   ..... Reference severe error count=2",
    "   ..... Last severe error=<root>[Coil:Cooling:DX:SingleSpeed][Coil Cooling DX Single Speed 3] - Missing required property 'air_outlet_node_name'.",
    "   ************* Warning:  Node connection errors not checked - most system input has not been read (see previous warning).",
    "   ************* Fatal error -- final processing.  Program exited before simulations began.  See previous error messages.",
    "   ************* EnergyPlus Warmup Error Summary. During Warmup: 0 Warning; 0 Severe Errors.",
    "   ************* EnergyPlus Sizing Error Summary. During Sizing: 0 Warning; 0 Severe Errors.",
    "   ************* EnergyPlus Terminated--Fatal Error Detected. 0 Warning; 2 Severe Errors; "
  ],
  "file_paths": [
    "/home/runner/work/OpenStudio-resources/OpenStudio-resources/testruns/autosize_hvac.rb/generated_files",
    "./files",
    "./weather",
    "../../files",
    "../../weather",
    "./"
  ],
  "seed_file": "in.osm",
  "steps": [
    {
      "arguments": {
      },
      "measure_dir_name": "openstudio_results"
    }
  ],
  "weather_file": "../../weatherdata/USA_IL_Chicago-OHare.Intl.AP.725300_TMY3.epw"
}